<?xml version="1.0" encoding="UTF-8"?>

<configuration xmlns:xsi="http://www.w3.org/2001/XMLSchema-instance" xsi:noNamespaceSchemaLocation="http://sumo.dlr.de/xsd/sumoConfiguration.xsd">

    <input>
        <net-file value="DCC.net.xml"/>
		<additional-files value="DCC_trafficlights.add.xml,vtypes.add.xml,DCC_routes.rou.xml,DCC_emitters.emi.xml,rsu.poi.xml"/>
    </input>

	
    <time>
        <begin value="3600"/>
        <end value="3750"/>
        <step-length value="0.5"/>
    </time>

	<output>
		<device.rerouting.probability value="1"/>
		<device.rerouting.threads value="8"/>
	</output>

</configuration>